  24
 
  C -3.06069056  1.14381725 -0.40309103
  N -3.27430549 -0.19993956 -0.49075397
  C -1.82415917  1.65907466 -0.28140560
  C -0.67332775  0.78696649 -0.30649465
  N -1.00299208 -0.57875475 -0.34175491
  C -2.25262502 -1.13664797 -0.51657149
  O -2.45250671 -2.32311885 -0.69266290
  O  0.49781038  1.13941054 -0.32376371
  H -3.94783850  1.75730115 -0.44786547
  H -4.18273183 -0.55929885 -0.73229977
  H -1.65804923  2.72081197 -0.21862165
  H -0.23030478 -1.22526231 -0.42554882
  N -1.57098132 -0.95512364 -3.52543597
  C -2.42106102  0.14402918 -3.73737068
  C -1.71840921  1.39463677 -3.90467237
  C -0.38401218  1.44301694 -3.74295417
  N  0.34951279  0.32381704 -3.48134657
  C -0.20989607 -0.93190253 -3.30156977
  O -3.63478710 -0.00683582 -3.74261488
  O  0.44372662 -1.90060528 -2.96501683
  H -2.02082792 -1.83945230 -3.33169473
  H -2.29569906  2.28071442 -4.10570631
  H  0.17893078  2.36234944 -3.80008112
  H  1.31618445  0.39779600 -3.21144265
