10

  C -1.07030000  1.42450000 -0.38670000
  C  0.25140000  1.47740000  0.34260000
  N -1.43670000  0.06420000 -0.76920000
  O  0.99600000  0.37350000  0.58270000
  O  0.66630000  2.55980000  0.72420000
  H -2.31810000  0.10510000 -1.33010000
  H -1.64320000 -0.48690000  0.09620000
  H  0.73980000 -0.51300000  0.29650000
  H -1.86580000  1.85180000  0.26370000
  H -0.98940000  2.04940000 -1.30210000
