18

C         -1.05903        1.85150        0.16263
C         -1.41927        0.55109       -0.56614
C         -0.59630       -0.60226        0.01221
C          0.90415       -0.24607       -0.04272
O          1.17274        0.96360        0.65709
C          0.46880        2.05875        0.08543
O         -1.52256        1.83331        1.49379
H         -1.16841        0.66113       -1.64457
H         -2.50775        0.34236       -0.48695
H         -0.88887       -0.77309        1.07029
H         -0.79680       -1.54025       -0.54884
O          1.36578       -0.15765       -1.36892
H          0.73369        2.98341        0.64031
H          0.79330        2.22339       -0.96654
H         -1.55930        2.70444       -0.34441
H          1.46977       -1.05429        0.47476
H         -0.89148        1.31218        2.05359
H          1.42733       -1.08618       -1.71507
