81

  C  3.22368540 -10.36018066 -15.89846053
  C  13.73359621 -13.33081940  7.35774188
  C  9.85495226 -17.70677847  3.29259559
  C  13.97269048 -19.47224999  17.51901725
  C  12.76147706 -17.04560181  16.39356640
  C  13.26849208 -14.58603858  10.22651539
  O  11.25997846 -10.39184133 -2.82792773
  C  11.62303751 -10.48569312 -7.55507961
  O  2.77311814 -15.48430532  16.01651507
  C  10.26511407 -32.32037544  12.00882795
  N  0.13349845  0.33435911  23.24578940
  N -3.98151761  10.27683689 -23.29652344
  C -1.85381499  3.81731293  23.83035914
  C -1.91117131  4.92226481  4.61206429
  C -7.38288303  9.37748319 -21.85578629
  C -3.64759230  12.06693726  11.61892155
  C -7.40450320  9.84464149 -9.60359748
  N  2.22229281 -20.05705296  3.84207522
  C -2.11462063  19.45837010  3.27910481
  C -1.18200908 -8.97093692  2.20779679
  C -3.59361339  6.60333677  3.12993800
  C  2.42775515 -22.85171825 -1.61872570
  C -1.68353934 -9.90621909  2.08386144
  C -2.73079804  0.26687138  0.30573782
  C -0.54669447 -31.77132472  0.50090227
  O  5.43302024 -38.54397886 -2.09558477
  O -5.83460768  6.73949456  2.66821223
  C -5.76127747  1.66237334  0.60040506
  H  9.80723121 -13.02759233 -5.81673622
  H  5.38468303 -16.13751832 -5.39064234
  H  14.91317743 -12.53268799  16.42532902
  C  6.17594430 -2.11582597 -3.07831349
  H  9.40944779 -11.74210969 -16.87016741
  H  18.74261574 -15.64751365 -5.67401440
  H -4.80688935 -19.95074319 -1.40435858
  H  13.10249234 -32.54941639  9.24495612
  H -6.76303402  14.94872688  28.10648538
  H -0.34104567 -0.60150640  31.76485396
  H -4.66514237  21.60382781  10.07554265
  H -17.74975761  31.48476198 -21.47027083
  H -11.44410560 -1.78259415 -38.80598781
  H -0.84593966  15.87906629  16.80152218
  H -9.03112375  26.41044199  16.38346135
  H -0.48479504  3.01487267 -10.02244797
  H -13.95967289  16.32870451 -14.15755834
  H -0.02015368 -14.67427868  3.42960128
  H -2.54136607 -17.76208044  3.28693735
  H -2.46877788  5.18228703  2.64456296
  H -1.84049439 -14.90118746 -2.18870908
  H  4.24896022 -8.44053965  1.09274793
  C -3.01635527  1.76606041 -3.28069802
  H -7.73258992  1.32821501  1.73056072
  H -6.23264192 -1.33442946  1.59412887
  O  0.87909368 -2.20062182 -28.71891544
  C  5.03507802  1.08787198 -16.28424989
  C -2.21699701  5.15761910 -14.29082578
  C  7.59425327  1.08908295 -8.22551667
  C -22.03333854  12.24686402 -12.11680778
  C -4.22644384  15.13584219 -6.10802902
  C -0.12046511  4.56885294 -1.66686906
  C -8.74955521  11.25076390 -1.78095925
  O  9.00060504  16.10618347 -16.44531363
  O -8.90936100  14.48880704  6.20864064
  C -2.23832211  21.88265435  8.27168361
  H  3.75914869  2.02236317 -20.29576064
  H -10.40456216 -1.52929232 -8.28881404
  H -7.71327215  18.11272588 -7.16679444
  H -14.29320615  1.16385741  2.81776345
  H  8.79459376  16.62162563 -11.72911151
  C -1.50945761  16.90854382  8.44686420
  H  4.41400719  24.18841916  15.37549864
  H -4.51148379  30.09163890  2.92842333
  H  5.03094871 -3.27309893  4.55162071
  H  3.76229192  1.79250094 -6.61343362
  H  5.45036110  1.35210130 -3.91249028
  H -1.49901446  2.09439967 -3.62990187
  H -3.06153547  4.28641065 -4.57982993
  H -2.62869657 -1.10765716 -4.50189725
  H -0.05291236  19.48351444  8.14667126
  H -6.44481429  14.46763639  6.11377597
  H  2.02703699  12.65652961  10.02274713