3
# CELL(abcABC):    7.00000     7.00000     7.00000    90.00000    90.00000    90.00000  Step:           0  Bead:       0 becx{atomic_unit}  cell{atomic_unit}
       O  7.22102e-01 -2.82010e-06  0.00000e+00
       H  3.61051e-01  1.41010e-06  6.58000e-07
       H  3.61051e-01  1.41010e-06 -6.58000e-07
3
# CELL(abcABC):    7.00000     7.00000     7.00000    90.00000    90.00000    90.00000  Step:           1  Bead:       0 becx{atomic_unit}  cell{atomic_unit}
       O  7.22102e-01 -2.82010e-06  0.00000e+00
       H  3.61051e-01  1.41010e-06  6.58000e-07
       H  3.61051e-01  1.41010e-06 -6.58000e-07
3
# CELL(abcABC):    7.00000     7.00000     7.00000    90.00000    90.00000    90.00000  Step:           2  Bead:       0 becx{atomic_unit}  cell{atomic_unit}
       O  7.22102e-01 -2.82010e-06  0.00000e+00
       H  3.61051e-01  1.41010e-06  6.58000e-07
       H  3.61051e-01  1.41010e-06 -6.58000e-07
3
# CELL(abcABC):    7.00000     7.00000     7.00000    90.00000    90.00000    90.00000  Step:           3  Bead:       0 becx{atomic_unit}  cell{atomic_unit}
       O  7.22102e-01 -2.82010e-06  0.00000e+00
       H  3.61051e-01  1.41010e-06  6.58000e-07
       H  3.61051e-01  1.41010e-06 -6.58000e-07
3
# CELL(abcABC):    7.00000     7.00000     7.00000    90.00000    90.00000    90.00000  Step:           4  Bead:       0 becx{atomic_unit}  cell{atomic_unit}
       O  7.22102e-01 -2.82010e-06  0.00000e+00
       H  3.61051e-01  1.41010e-06  6.58000e-07
       H  3.61051e-01  1.41010e-06 -6.58000e-07
3
# CELL(abcABC):    7.00000     7.00000     7.00000    90.00000    90.00000    90.00000  Step:           5  Bead:       0 becx{atomic_unit}  cell{atomic_unit}
       O  7.22102e-01 -2.82010e-06  0.00000e+00
       H  3.61051e-01  1.41010e-06  6.58000e-07
       H  3.61051e-01  1.41010e-06 -6.58000e-07
3
# CELL(abcABC):    7.00000     7.00000     7.00000    90.00000    90.00000    90.00000  Step:           6  Bead:       0 becx{atomic_unit}  cell{atomic_unit}
       O  7.22102e-01 -2.82010e-06  0.00000e+00
       H  3.61051e-01  1.41010e-06  6.58000e-07
       H  3.61051e-01  1.41010e-06 -6.58000e-07
3
# CELL(abcABC):    7.00000     7.00000     7.00000    90.00000    90.00000    90.00000  Step:           7  Bead:       0 becx{atomic_unit}  cell{atomic_unit}
       O  7.22102e-01 -2.82010e-06  0.00000e+00
       H  3.61051e-01  1.41010e-06  6.58000e-07
       H  3.61051e-01  1.41010e-06 -6.58000e-07
3
# CELL(abcABC):    7.00000     7.00000     7.00000    90.00000    90.00000    90.00000  Step:           8  Bead:       0 becx{atomic_unit}  cell{atomic_unit}
       O  7.22102e-01 -2.82010e-06  0.00000e+00
       H  3.61051e-01  1.41010e-06  6.58000e-07
       H  3.61051e-01  1.41010e-06 -6.58000e-07
3
# CELL(abcABC):    7.00000     7.00000     7.00000    90.00000    90.00000    90.00000  Step:           9  Bead:       0 becx{atomic_unit}  cell{atomic_unit}
       O  7.22102e-01 -2.82010e-06  0.00000e+00
       H  3.61051e-01  1.41010e-06  6.58000e-07
       H  3.61051e-01  1.41010e-06 -6.58000e-07
3
# CELL(abcABC):    7.00000     7.00000     7.00000    90.00000    90.00000    90.00000  Step:          10  Bead:       0 becx{atomic_unit}  cell{atomic_unit}
       O  7.22102e-01 -2.82010e-06  0.00000e+00
       H  3.61051e-01  1.41010e-06  6.58000e-07
       H  3.61051e-01  1.41010e-06 -6.58000e-07
