3
# CELL(abcABC):    7.00000     7.00000     7.00000    90.00000    90.00000    90.00000  Step:           0  Bead:       0 forces{atomic_unit}  cell{atomic_unit}
       O -2.90210e-11  3.21567e-06  3.43901e-06
       H  2.65243e-11 -2.93903e-06 -3.91722e-06
       H  2.49667e-12 -2.76644e-07  4.78210e-07
3
# CELL(abcABC):    7.00000     7.00000     7.00000    90.00000    90.00000    90.00000  Step:           1  Bead:       0 forces{atomic_unit}  cell{atomic_unit}
       O -1.56672e-08  1.75081e-03  2.47195e-06
       H  7.84217e-09 -8.76366e-04 -3.91010e-04
       H  7.82499e-09 -8.74446e-04  3.88538e-04
3
# CELL(abcABC):    7.00000     7.00000     7.00000    90.00000    90.00000    90.00000  Step:           2  Bead:       0 forces{atomic_unit}  cell{atomic_unit}
       O -4.88661e-08  5.57793e-03  1.86819e-07
       H  2.44336e-08 -2.78904e-03 -1.01560e-03
       H  2.44324e-08 -2.78890e-03  1.01541e-03
3
# CELL(abcABC):    7.00000     7.00000     7.00000    90.00000    90.00000    90.00000  Step:           3  Bead:       0 forces{atomic_unit}  cell{atomic_unit}
       O -6.99195e-08  8.16998e-03 -2.11914e-06
       H  3.49525e-08 -4.08414e-03 -7.73926e-04
       H  3.49670e-08 -4.08584e-03  7.76046e-04
3
# CELL(abcABC):    7.00000     7.00000     7.00000    90.00000    90.00000    90.00000  Step:           4  Bead:       0 forces{atomic_unit}  cell{atomic_unit}
       O -5.49619e-08  6.51268e-03 -3.32836e-06
       H  2.74697e-08 -3.25501e-03  1.02326e-03
       H  2.74922e-08 -3.25767e-03 -1.01993e-03
3
# CELL(abcABC):    7.00000     7.00000     7.00000    90.00000    90.00000    90.00000  Step:           5  Bead:       0 forces{atomic_unit}  cell{atomic_unit}
       O -8.81071e-10  1.04144e-04 -2.81960e-06
       H  4.31157e-10 -5.09620e-05  3.94315e-03
       H  4.49914e-10 -5.31819e-05 -3.94033e-03
3
# CELL(abcABC):    7.00000     7.00000     7.00000    90.00000    90.00000    90.00000  Step:           6  Bead:       0 forces{atomic_unit}  cell{atomic_unit}
       O  6.92313e-08 -8.03667e-03 -6.47347e-07
       H -3.46177e-08  4.01857e-03  6.22121e-03
       H -3.46136e-08  4.01810e-03 -6.22056e-03
3
# CELL(abcABC):    7.00000     7.00000     7.00000    90.00000    90.00000    90.00000  Step:           7  Bead:       0 forces{atomic_unit}  cell{atomic_unit}
       O  1.13378e-07 -1.28376e-02  2.06503e-06
       H -5.66820e-08  6.41801e-03  5.49064e-03
       H -5.66961e-08  6.41960e-03 -5.49271e-03
3
# CELL(abcABC):    7.00000     7.00000     7.00000    90.00000    90.00000    90.00000  Step:           8  Bead:       0 forces{atomic_unit}  cell{atomic_unit}
       O  9.90581e-08 -1.10032e-02  3.52401e-06
       H -4.95172e-08  5.50027e-03  7.89518e-04
       H -4.95409e-08  5.50290e-03 -7.93042e-04
3
# CELL(abcABC):    7.00000     7.00000     7.00000    90.00000    90.00000    90.00000  Step:           9  Bead:       0 forces{atomic_unit}  cell{atomic_unit}
       O  3.25151e-08 -3.59838e-03  2.85268e-06
       H -1.62482e-08  1.79815e-03 -5.97820e-03
       H -1.62670e-08  1.80024e-03  5.97535e-03
3
# CELL(abcABC):    7.00000     7.00000     7.00000    90.00000    90.00000    90.00000  Step:          10  Bead:       0 forces{atomic_unit}  cell{atomic_unit}
       O -4.65650e-08  5.22276e-03  7.48046e-07
       H  2.32847e-08 -2.61164e-03 -1.12592e-02
       H  2.32802e-08 -2.61112e-03  1.12584e-02
