3
# CELL(abcABC):    7.00000     7.00000     7.00000    90.00000    90.00000    90.00000  Step:           0  Bead:       0 positions{atomic_unit}  cell{atomic_unit}
       O  3.77946e+00  3.41870e+00  3.77945e+00
       H  3.77945e+00  4.52675e+00  5.21072e+00
       H  3.77945e+00  4.52675e+00  2.34819e+00
3
# CELL(abcABC):    7.00000     7.00000     7.00000    90.00000    90.00000    90.00000  Step:           1  Bead:       0 positions{atomic_unit}  cell{atomic_unit}
       O  3.77946e+00  3.41810e+00  3.77945e+00
       H  3.77945e+00  4.53148e+00  5.20901e+00
       H  3.77945e+00  4.53148e+00  2.34990e+00
3
# CELL(abcABC):    7.00000     7.00000     7.00000    90.00000    90.00000    90.00000  Step:           2  Bead:       0 positions{atomic_unit}  cell{atomic_unit}
       O  3.77946e+00  3.41672e+00  3.77945e+00
       H  3.77945e+00  4.54250e+00  5.20437e+00
       H  3.77945e+00  4.54250e+00  2.35454e+00
3
# CELL(abcABC):    7.00000     7.00000     7.00000    90.00000    90.00000    90.00000  Step:           3  Bead:       0 positions{atomic_unit}  cell{atomic_unit}
       O  3.77946e+00  3.41551e+00  3.77945e+00
       H  3.77945e+00  4.55210e+00  5.19835e+00
       H  3.77945e+00  4.55211e+00  2.36055e+00
3
# CELL(abcABC):    7.00000     7.00000     7.00000    90.00000    90.00000    90.00000  Step:           4  Bead:       0 positions{atomic_unit}  cell{atomic_unit}
       O  3.77946e+00  3.41544e+00  3.77945e+00
       H  3.77945e+00  4.55259e+00  5.19354e+00
       H  3.77945e+00  4.55260e+00  2.36536e+00
3
# CELL(abcABC):    7.00000     7.00000     7.00000    90.00000    90.00000    90.00000  Step:           5  Bead:       0 positions{atomic_unit}  cell{atomic_unit}
       O  3.77946e+00  3.41692e+00  3.77945e+00
       H  3.77945e+00  4.54089e+00  5.19300e+00
       H  3.77945e+00  4.54089e+00  2.36590e+00
3
# CELL(abcABC):    7.00000     7.00000     7.00000    90.00000    90.00000    90.00000  Step:           6  Bead:       0 positions{atomic_unit}  cell{atomic_unit}
       O  3.77946e+00  3.41946e+00  3.77945e+00
       H  3.77945e+00  4.52070e+00  5.19916e+00
       H  3.77945e+00  4.52070e+00  2.35974e+00
3
# CELL(abcABC):    7.00000     7.00000     7.00000    90.00000    90.00000    90.00000  Step:           7  Bead:       0 positions{atomic_unit}  cell{atomic_unit}
       O  3.77946e+00  3.42197e+00  3.77945e+00
       H  3.77945e+00  4.50076e+00  5.21238e+00
       H  3.77945e+00  4.50077e+00  2.34653e+00
3
# CELL(abcABC):    7.00000     7.00000     7.00000    90.00000    90.00000    90.00000  Step:           8  Bead:       0 positions{atomic_unit}  cell{atomic_unit}
       O  3.77946e+00  3.42333e+00  3.77945e+00
       H  3.77945e+00  4.49001e+00  5.22954e+00
       H  3.77945e+00  4.49001e+00  2.32937e+00
3
# CELL(abcABC):    7.00000     7.00000     7.00000    90.00000    90.00000    90.00000  Step:           9  Bead:       0 positions{atomic_unit}  cell{atomic_unit}
       O  3.77946e+00  3.42300e+00  3.77945e+00
       H  3.77945e+00  4.49266e+00  5.24444e+00
       H  3.77945e+00  4.49266e+00  2.31447e+00
3
# CELL(abcABC):    7.00000     7.00000     7.00000    90.00000    90.00000    90.00000  Step:          10  Bead:       0 positions{atomic_unit}  cell{atomic_unit}
       O  3.77946e+00  3.42129e+00  3.77945e+00
       H  3.77945e+00  4.50622e+00  5.25044e+00
       H  3.77945e+00  4.50622e+00  2.30847e+00
