3
# CELL(abcABC):    7.00000     7.00000     7.00000    90.00000    90.00000    90.00000  Step:           0  Bead:       0 velocities{atomic_unit}  cell{atomic_unit}
       O -0.00000e+00  0.00000e+00 -0.00000e+00
       H -0.00000e+00 -0.00000e+00  0.00000e+00
       H  0.00000e+00  0.00000e+00 -0.00000e+00
3
# CELL(abcABC):    7.00000     7.00000     7.00000    90.00000    90.00000    90.00000  Step:           1  Bead:       0 velocities{atomic_unit}  cell{atomic_unit}
       O -1.86028e-10 -2.39987e-05  4.16677e-09
       H  1.47670e-09  1.90445e-04 -7.68217e-05
       H  1.47624e-09  1.90496e-04  7.67556e-05
3
# CELL(abcABC):    7.00000     7.00000     7.00000    90.00000    90.00000    90.00000  Step:           2  Bead:       0 velocities{atomic_unit}  cell{atomic_unit}
       O -3.19260e-10 -3.14311e-05  6.03986e-09
       H  2.53420e-09  2.49422e-04 -1.28852e-04
       H  2.53353e-09  2.49495e-04  1.28756e-04
3
# CELL(abcABC):    7.00000     7.00000     7.00000    90.00000    90.00000    90.00000  Step:           3  Bead:       0 velocities{atomic_unit}  cell{atomic_unit}
       O -3.59802e-10 -1.53880e-05  4.67598e-09
       H  2.85588e-09  1.22102e-04 -1.30922e-04
       H  2.85536e-09  1.22158e-04  1.30848e-04
3
# CELL(abcABC):    7.00000     7.00000     7.00000    90.00000    90.00000    90.00000  Step:           4  Bead:       0 velocities{atomic_unit}  cell{atomic_unit}
       O -2.95338e-10  1.70951e-05  8.34855e-10
       H  2.34403e-09 -1.35682e-04 -6.48135e-05
       H  2.34392e-09 -1.35675e-04  6.48003e-05
3
# CELL(abcABC):    7.00000     7.00000     7.00000    90.00000    90.00000    90.00000  Step:           5  Bead:       0 velocities{atomic_unit}  cell{atomic_unit}
       O -1.49069e-10  4.86057e-05 -3.49848e-09
       H  1.18291e-09 -3.85745e-04  6.79660e-05
       H  1.18327e-09 -3.85791e-04 -6.79104e-05
3
# CELL(abcABC):    7.00000     7.00000     7.00000    90.00000    90.00000    90.00000  Step:           6  Bead:       0 velocities{atomic_unit}  cell{atomic_unit}
       O  2.52133e-11  6.11440e-05 -5.93941e-09
       H -2.00429e-10 -4.85243e-04  2.34390e-04
       H -1.99812e-10 -4.85318e-04 -2.34296e-04
3
# CELL(abcABC):    7.00000     7.00000     7.00000    90.00000    90.00000    90.00000  Step:           7  Bead:       0 velocities{atomic_unit}  cell{atomic_unit}
       O  1.57576e-10  4.67733e-05 -4.93425e-09
       H -1.25087e-09 -3.71193e-04  3.67366e-04
       H -1.25037e-09 -3.71256e-04 -3.67288e-04
3
# CELL(abcABC):    7.00000     7.00000     7.00000    90.00000    90.00000    90.00000  Step:           8  Bead:       0 velocities{atomic_unit}  cell{atomic_unit}
       O  1.86710e-10  1.23516e-05 -9.88730e-10
       H -1.48187e-09 -9.80224e-05  3.87769e-04
       H -1.48179e-09 -9.80388e-05 -3.87754e-04
3
# CELL(abcABC):    7.00000     7.00000     7.00000    90.00000    90.00000    90.00000  Step:           9  Bead:       0 velocities{atomic_unit}  cell{atomic_unit}
       O  9.48511e-11 -2.47119e-05  3.50681e-09
       H -7.52576e-10  1.96113e-04  2.52794e-04
       H -7.52976e-10  1.96148e-04 -2.52850e-04
3
# CELL(abcABC):    7.00000     7.00000     7.00000    90.00000    90.00000    90.00000  Step:          10  Bead:       0 velocities{atomic_unit}  cell{atomic_unit}
       O -7.13842e-11 -4.61139e-05  6.03862e-09
       H  5.66902e-10  3.65960e-04 -5.79967e-06
       H  5.66239e-10  3.66024e-04  5.70381e-06
